CM	---	NEC2	Input	File	created	or	edited	by	xnec2c	4,4,16	---
CM	---	rmc									
CE	---	End	Comments	---							
GW	1	15	4,00000E-02	-1,25000E-01	-1,25000E-01	4,00000E-02	1,25000E-01	1,25000E-01	1,50000E-02		
GW	3	15	2,05000E-01	-1,20000E-01	-1,20000E-01	2,05000E-01	1,20000E-01	1,20000E-01	1,50000E-02		
GW	5	15	3,65000E-01	-1,20000E-01	-1,20000E-01	3,65000E-01	1,20000E-01	1,20000E-01	1,50000E-02		
GW	2	15	4,20000E-02	1,25000E-01	-1,25000E-01	4,20000E-02	-1,25000E-01	1,25000E-01	1,50000E-02		
GW	4	15	2,07000E-01	1,20000E-01	-1,20000E-01	2,07000E-01	-1,20000E-01	1,20000E-01	1,50000E-02		
GW	6	15	3,67000E-01	1,20000E-01	-1,20000E-01	3,67000E-01	-1,20000E-01	1,20000E-01	1,50000E-02		
GW	100	15	0,00000E+00	1,50000E-01	1,50000E-01	0,00000E+00	-1,50000E-01	1,50000E-01	1,50000E-02		
GW	101	15	0,00000E+00	-1,50000E-01	-1,50000E-01	0,00000E+00	-1,50000E-01	1,50000E-01	1,50000E-02		
GW	102	15	0,00000E+00	1,50000E-01	-1,50000E-01	0,00000E+00	1,50000E-01	1,50000E-01	1,50000E-02		
GW	103	15	0,00000E+00	1,50000E-01	-1,50000E-01	0,00000E+00	-1,50000E-01	-1,50000E-01	1,50000E-02		
GW	104	15	0,00000E+00	1,50000E-01	-1,50000E-01	0,00000E+00	-1,50000E-01	1,50000E-01	1,50000E-02		
GW	105	15	0,00000E+00	-1,50000E-01	-1,50000E-01	0,00000E+00	1,50000E-01	1,50000E-01	1,50000E-02		
GW	11	15	4,00000E-02	3,75000E-01	-1,25000E-01	4,00000E-02	6,25000E-01	1,25000E-01	1,50000E-02		
GW	13	15	2,05000E-01	3,80000E-01	-1,20000E-01	2,05000E-01	6,20000E-01	1,20000E-01	1,50000E-02		
GW	15	15	3,65000E-01	3,80000E-01	-1,20000E-01	3,65000E-01	6,20000E-01	1,20000E-01	1,50000E-02		
GW	12	15	4,20000E-02	6,25000E-01	-1,25000E-01	4,20000E-02	3,75000E-01	1,25000E-01	1,50000E-02		
GW	14	15	2,07000E-01	6,20000E-01	-1,20000E-01	2,07000E-01	3,80000E-01	1,20000E-01	1,50000E-02		
GW	16	15	3,67000E-01	6,20000E-01	-1,20000E-01	3,67000E-01	3,80000E-01	1,20000E-01	1,50000E-02		
GW	1100	15	0,00000E+00	6,50000E-01	1,50000E-01	0,00000E+00	3,50000E-01	1,50000E-01	1,50000E-02		
GW	1101	15	0,00000E+00	3,50000E-01	-1,50000E-01	0,00000E+00	3,50000E-01	1,50000E-01	1,50000E-02		
GW	1102	15	0,00000E+00	6,50000E-01	-1,50000E-01	0,00000E+00	6,50000E-01	1,50000E-01	1,50000E-02		
GW	1103	15	0,00000E+00	6,50000E-01	-1,50000E-01	0,00000E+00	3,50000E-01	-1,50000E-01	1,50000E-02		
GE	0	0	0,00000E+00	0,00000E+00	0,00000E+00	0,00000E+00	0,00000E+00	0,00000E+00	0,00000E+00		
EX	0	1	8	0	1,00000E+00	0,00000E+00	0,00000E+00	0,00000E+00	0,00000E+00	0,00000E+00	
EX	0	2	8	0	0,00000E+00	0,00000E+00	0,00000E+00	0,00000E+00	0,00000E+00	0,00000E+00	
FR	0	20	0	0	4,00000E+02	5,26316E+00	5,00000E+02	0,00000E+00	0,00000E+00	0,00000E+00	
NH	0	0	0	0	0,00000E+00	0,00000E+00	0,00000E+00	0,00000E+00	0,00000E+00	0,00000E+00	
NE	0	10	1	10	-1,35000E+00	0,00000E+00	-1,35000E+00	3,00000E-01	0,00000E+00	3,00000E-01	
RP	0	19	37	1000	0,00000E+00	0,00000E+00	1,00000E+01	1,00000E+01	0,00000E+00	0,00000E+00	
EN	0	0	0	0	0,00000E+00	0,00000E+00	0,00000E+00	0,00000E+00	0,00000E+00	0,00000E+00	

