CM ---	NEC2	Input	File	created	or	edited	by	xnec2c	4,4,16	---
CM ---	rmc									
CE ---	End	Comments	---							
GW     1    15   2,80000E-01  1,22000E-01  1,22000E-01  2,80000E-01 -1,22000E-01 -1,22000E-01  1,50000E-02
GW     2    15   2,80000E-01  1,22000E-01 -1,22000E-01  2,80000E-01 -1,22000E-01  1,22000E-01  1,50000E-02
GW     3    15   4,05000E-01  1,00000E-01  1,00000E-01  4,05000E-01 -1,00000E-01 -1,00000E-01  1,50000E-02
GW     4    15   4,05000E-01  1,00000E-01 -1,00000E-01  4,05000E-01 -1,00000E-01  1,00000E-01  1,50000E-02
GW     5    15   5,75000E-01  1,00000E-01  1,00000E-01  5,75000E-01 -1,00000E-01 -1,00000E-01  1,50000E-02
GW     6    15   5,75000E-01  1,00000E-01 -1,00000E-01  5,75000E-01 -1,00000E-01  1,00000E-01  1,50000E-02
GW     7    15   7,40000E-01  1,00000E-01  1,00000E-01  7,40000E-01 -1,00000E-01 -1,00000E-01  1,50000E-02
GW     8    15   7,40000E-01  1,00000E-01 -1,00000E-01  7,40000E-01 -1,00000E-01  1,00000E-01  1,50000E-02
GW     9    15   3,65000E-01  1,17500E-01  1,17500E-01  3,65000E-01  1,17500E-01 -1,17500E-01  1,50000E-02
GW    10    15   3,65000E-01 -1,17500E-01  1,17500E-01  3,65000E-01  1,17500E-01  1,17500E-01  1,50000E-02
GW    11    15   3,65000E-01 -1,17500E-01 -1,17500E-01  3,65000E-01 -1,17500E-01  1,17500E-01  1,50000E-02
GW    12    15   3,65000E-01  1,17500E-01 -1,17500E-01  3,65000E-01 -1,17500E-01 -1,17500E-01  1,50000E-02
GW    13    16   3,65000E-01  0,00000E+00  1,17500E-01  3,65000E-01  0,00000E+00 -1,17500E-01  1,50000E-02
GW    14    16   3,65000E-01  1,17500E-01  0,00000E+00  3,65000E-01 -1,17500E-01  0,00000E+00  1,50000E-02
GE     0     0   0,00000E+00  0,00000E+00  0,00000E+00  0,00000E+00  0,00000E+00  0,00000E+00  0,00000E+00
EX     0    13     8      0  1,00000E+00  0,00000E+00  0,00000E+00  0,00000E+00  0,00000E+00  0,00000E+00
EX     0    14     8      0  0,00000E+00  0,00000E+00  0,00000E+00  0,00000E+00  0,00000E+00  0,00000E+00
FR     0   200     0     0  4,00000E+02  3,01508E-01  4,60000E+02  0,00000E+00  0,00000E+00  0,00000E+00
NH     0     0     0      0  0,00000E+00  0,00000E+00  0,00000E+00  0,00000E+00  0,00000E+00  0,00000E+00
NE     0    10     1     10 -1,35000E+00  0,00000E+00 -1,35000E+00  3,00000E-01  0,00000E+00  3,00000E-01
RP     0    19    37   1000  0,00000E+00  0,00000E+00  1,00000E+01  1,00000E+01  0,00000E+00  0,00000E+00
EN     0     0     0      0  0,00000E+00  0,00000E+00  0,00000E+00  0,00000E+00  0,00000E+00  0,00000E+00
