CM	---	NEC2	Input	File	created	or	edited	by	xnec2c	4.4.16	---
CM	---	rmc									
CE	---	End	Comments	---							
GW	1	21	0,00000E+00	0,00000E+00	0,00000E+00	0.367010440062222	0,00000E+00	0.367010440062222	1,50000E-02		
GW	2	21	0.367010440062222	0,00000E+00	0.367010440062222	0,00000E+00	0,00000E+00	0.734020880124444	1,50000E-02		
GW	3	21	0,00000E+00	0,00000E+00	0.734020880124444	0.367010440062222	0,00000E+00	1.10103132018667	1,50000E-02		
GW	4	21	0.367010440062222	0,00000E+00	1.10103132018667	0,00000E+00	0,00000E+00	1.46804176024889	1,50000E-02		
GW	5	21	0	0,00000E+00	1.46804176024889	0.367010440062222	0,00000E+00	1.83505220031111	1,50000E-02		
GE	1	0	0,00000E+00	0,00000E+00	0,00000E+00	0,00000E+00	0,00000E+00	0,00000E+00	0,00000E+00		
EX	0	3	11	0	1,00000E+00	0,00000E+00	0,00000E+00	0,00000E+00	0,00000E+00	0,00000E+00	
FR	0	20	0	0	1,40000E+02	2,63158E-01	1,45000E+02	0,00000E+00	0,00000E+00	0,00000E+00	
NH	0	0	0	0	0,00000E+00	0,00000E+00	0,00000E+00	0,00000E+00	0,00000E+00	0,00000E+00	
NE	0	10	1	10	-1,35000E+00	0,00000E+00	-1,35000E+00	3,00000E-01	0,00000E+00	3,00000E-01	
RP	0	19	37	1000	0,00000E+00	0,00000E+00	1,00000E+01	1,00000E+01	0,00000E+00	0,00000E+00	
EN	0	0	0	0	0,00000E+00	0,00000E+00	0,00000E+00	0,00000E+00	0,00000E+00	0,00000E+00	

