CM --- NEC2 Input File created or edited by xnec2c 4.4.16 ---
CM --- rmc
CE --- End Comments ---
GW     1    21   0,00000E+00  0,00000E+00  0,00000E+00  1,41420E+00  0,00000E+00  1,41420E+00  1,50000E-02
GW     2    21   1,41420E+00  0,00000E+00  1,41420E+00  0,00000E+00  0,00000E+00  2,82840E+00  1,50000E-02
GW     3    21  0,00000E+00  0,00000E+00  2,82840E+00  6,73400E-01  0,00000E+00  3,50180E+00  1,50000E-02
GW     4     1  6,73400E-01  0,00000E+00  3,50180E+00  7,40300E-01  0,00000E+00  3,56910E+00  1,50000E-02
GW     5    15   1,41420E+00  0,00000E+00  4,24260E+00  7,40300E-01  0,00000E+00  3,56910E+00  5,00000E-03
GW     6    20   1,41420E+00  0,00000E+00  4,24260E+00  0,00000E+00  0,00000E+00  5,65680E+00  1,50000E-02
GW     7    20   1,41420E+00  0,00000E+00  7,07100E+00  0,00000E+00  0,00000E+00  5,65680E+00  1,50000E-02
GE     1     0   0,00000E+00  0,00000E+00  0,00000E+00  0,00000E+00  0,00000E+00  0,00000E+00  0,00000E+00
EX     0     4     1      0  1,00000E+00  0,00000E+00  0,00000E+00  0,00000E+00  0,00000E+00  0,00000E+00
FR     0    20     0      0  1,40000E+02  2,00000E-01  1,50000E+02  0,00000E+00  0,00000E+00  0,00000E+00
NH     0     0     0      0  0,00000E+00  0,00000E+00  0,00000E+00  0,00000E+00  0,00000E+00  0,00000E+00
NE     0    10     1     10 -1,35000E+00  0,00000E+00 -1,35000E+00  3,00000E-01  0,00000E+00  3,00000E-01
RP     0    19    37   1000  0,00000E+00  0,00000E+00  1,00000E+01  1,00000E+01  0,00000E+00  0,00000E+00
EN     0     0     0      0  0,00000E+00  0,00000E+00  0,00000E+00  0,00000E+00  0,00000E+00  0,00000E+00
