CM --- NEC2 Input File created or edited by xnec2c 3.5 ---
CM  Yagi for 145 MHz
CE --- End Comments ---
GW     1    25   2,00000E-01 -1,70000E-01  0,00000E+00  2,00000E-01  1,70000E-01  0,00000E+00  5,00000E-03
GW     2    25   3,38000E-01 -1,62500E-01  0,00000E+00  3,38000E-01  1,62500E-01  0,00000E+00  5,00000E-03
GW     3    22   3,90000E-01 -1,53500E-01  0,00000E+00  3,90000E-01  1,53500E-01  0,00000E+00  5,00000E-03
GM     3     1   0,00000E+00  0,00000E+00  1,80000E+02  0,00000E+00  0,00000E+00  0,00000E+00  1,00000E+00
GE     0     0   0,00000E+00  0,00000E+00  0,00000E+00  0,00000E+00  0,00000E+00  0,00000E+00  0,00000E+00
FR     0    21     0      0  4,30000E+02  5,00000E-01  4,40000E+02  0,00000E+00  0,00000E+00  0,00000E+00
EX     0     2    13      0  1,00000E+00  0,00000E+00  0,00000E+00  0,00000E+00  0,00000E+00  0,00000E+00
EX     0     5    13     0  1,00000E+00  0,00000E+00  0,00000E+00  0,00000E+00  0,00000E+00  0,00000E+00
NH     0     0     0      0  0,00000E+00  0,00000E+00  0,00000E+00  0,00000E+00  0,00000E+00  0,00000E+00
NE     0    20    15      1 -1,40000E+00 -1,40000E+00  5,00000E-02  2,00000E-01  2,00000E-01  0,00000E+00
RP     0    37    73   1000  0,00000E+00  0,00000E+00  5,00000E+00  5,00000E+00  0,00000E+00  0,00000E+00
EN     0     0     0      0  0,00000E+00  0,00000E+00  0,00000E+00  0,00000E+00  0,00000E+00  0,00000E+00
